Version 4
SHEET 1 880 680
WIRE 96 -816 -80 -816
WIRE -208 -736 -416 -736
WIRE -80 -736 -80 -816
WIRE -80 -736 -128 -736
WIRE -80 -720 -80 -736
WIRE -208 -624 -416 -624
WIRE -80 -624 -80 -640
WIRE -80 -624 -128 -624
WIRE -80 -608 -80 -624
WIRE -208 -512 -416 -512
WIRE -80 -512 -80 -528
WIRE -80 -512 -128 -512
WIRE -80 -496 -80 -512
WIRE -208 -400 -416 -400
WIRE -80 -400 -80 -416
WIRE -80 -400 -128 -400
WIRE -80 -384 -80 -400
WIRE -208 -288 -416 -288
WIRE -80 -288 -80 -304
WIRE -80 -288 -128 -288
WIRE -80 -272 -80 -288
WIRE -208 -176 -416 -176
WIRE -80 -176 -80 -192
WIRE -80 -176 -128 -176
WIRE -80 -160 -80 -176
WIRE -208 -64 -416 -64
WIRE -80 -64 -80 -80
WIRE -80 -64 -128 -64
WIRE -80 -48 -80 -64
WIRE -208 48 -416 48
WIRE -80 48 -80 32
WIRE -80 48 -128 48
WIRE -80 64 -80 48
WIRE -80 176 -80 144
FLAG -80 176 0
FLAG -416 128 0
FLAG -416 16 0
FLAG -416 -96 0
FLAG -416 -208 0
FLAG -416 -320 0
FLAG -416 -432 0
FLAG -416 -544 0
FLAG -416 -656 0
SYMBOL res -96 48 R0
SYMATTR InstName R1
SYMATTR Value 1k
SYMBOL res -96 -64 R0
SYMATTR InstName R2
SYMATTR Value 1k
SYMBOL res -96 -176 R0
SYMATTR InstName R3
SYMATTR Value 1k
SYMBOL res -96 -288 R0
SYMATTR InstName R4
SYMATTR Value 1k
SYMBOL res -96 -400 R0
SYMATTR InstName R5
SYMATTR Value 1k
SYMBOL res -96 -512 R0
SYMATTR InstName R6
SYMATTR Value 1k
SYMBOL res -96 -624 R0
SYMATTR InstName R7
SYMATTR Value 1k
SYMBOL res -96 -736 R0
SYMATTR InstName R8
SYMATTR Value 1k
SYMBOL res -112 32 R90
WINDOW 0 0 56 VBottom 2
WINDOW 3 32 56 VTop 2
SYMATTR InstName R9
SYMATTR Value 2k
SYMBOL res -112 -80 R90
WINDOW 0 0 56 VBottom 2
WINDOW 3 32 56 VTop 2
SYMATTR InstName R10
SYMATTR Value 2k
SYMBOL res -112 -192 R90
WINDOW 0 0 56 VBottom 2
WINDOW 3 32 56 VTop 2
SYMATTR InstName R11
SYMATTR Value 2k
SYMBOL res -112 -304 R90
WINDOW 0 0 56 VBottom 2
WINDOW 3 32 56 VTop 2
SYMATTR InstName R12
SYMATTR Value 2k
SYMBOL res -112 -416 R90
WINDOW 0 0 56 VBottom 2
WINDOW 3 32 56 VTop 2
SYMATTR InstName R13
SYMATTR Value 2k
SYMBOL res -112 -528 R90
WINDOW 0 0 56 VBottom 2
WINDOW 3 32 56 VTop 2
SYMATTR InstName R14
SYMATTR Value 2k
SYMBOL res -112 -640 R90
WINDOW 0 0 56 VBottom 2
WINDOW 3 32 56 VTop 2
SYMATTR InstName R15
SYMATTR Value 2k
SYMBOL res -112 -752 R90
WINDOW 0 0 56 VBottom 2
WINDOW 3 32 56 VTop 2
SYMATTR InstName R16
SYMATTR Value 2k
SYMBOL voltage -416 32 R0
WINDOW 3 -305 98 Left 2
WINDOW 123 0 0 Left 0
WINDOW 39 0 0 Left 0
SYMATTR InstName V1
SYMATTR Value PULSE(0 3.3 0 1p 1p 10 20)
SYMBOL voltage -416 -80 R0
WINDOW 3 -292 93 Left 2
WINDOW 123 0 0 Left 0
WINDOW 39 0 0 Left 0
SYMATTR InstName V2
SYMATTR Value PULSE(0 3.3 0 1p 1p 20 40)
SYMBOL voltage -416 -192 R0
WINDOW 3 -295 104 Left 2
WINDOW 123 0 0 Left 0
WINDOW 39 0 0 Left 0
SYMATTR InstName V3
SYMATTR Value PULSE(0 3.3 0 1p 1p 40 80)
SYMBOL voltage -416 -304 R0
WINDOW 3 -297 91 Left 2
WINDOW 123 0 0 Left 0
WINDOW 39 0 0 Left 0
SYMATTR InstName V4
SYMATTR Value PULSE(0 3.3 0 1p 1p 80 160)
SYMBOL voltage -416 -416 R0
WINDOW 3 -295 94 Left 2
WINDOW 123 0 0 Left 0
WINDOW 39 0 0 Left 0
SYMATTR InstName V5
SYMATTR Value PULSE(0 3.3 0 1p 1p 160 320)
SYMBOL voltage -416 -528 R0
WINDOW 3 -295 96 Left 2
WINDOW 123 0 0 Left 0
WINDOW 39 0 0 Left 0
SYMATTR InstName V6
SYMATTR Value PULSE(0 3.3 0 1p 1p 320 640)
SYMBOL voltage -416 -640 R0
WINDOW 3 -299 94 Left 2
WINDOW 123 0 0 Left 0
WINDOW 39 0 0 Left 0
SYMATTR InstName V7
SYMATTR Value PULSE(0 3.3 0 1p 1p 640 1280)
SYMBOL voltage -416 -752 R0
WINDOW 3 -297 100 Left 2
WINDOW 123 0 0 Left 0
WINDOW 39 0 0 Left 0
SYMATTR InstName V8
SYMATTR Value PULSE(0 3.3 0 1p 1p 1280 2560)
TEXT -722 200 Left 2 !.tran 3000
