Version 4
SHEET 1 2164 680
WIRE 720 -688 720 -720
WIRE 896 -624 896 -720
WIRE 720 -576 720 -608
WIRE 832 -576 720 -576
WIRE 432 -560 384 -560
WIRE 720 -560 720 -576
WIRE 384 -496 384 -560
WIRE 896 -496 896 -528
WIRE 432 -480 432 -496
WIRE 384 -464 384 -496
WIRE 352 -448 304 -448
WIRE 528 -432 416 -432
WIRE 560 -432 528 -432
WIRE 720 -432 720 -496
WIRE 720 -432 640 -432
WIRE 64 -416 -32 -416
WIRE 208 -416 128 -416
WIRE 352 -416 208 -416
WIRE 720 -400 720 -432
WIRE 384 -384 384 -400
WIRE 480 -384 384 -384
WIRE 896 -384 896 -416
WIRE 1088 -384 896 -384
WIRE 384 -368 384 -384
WIRE 896 -352 896 -384
WIRE 1088 -336 1088 -384
WIRE 304 -304 304 -448
WIRE 384 -304 304 -304
WIRE 528 -304 528 -432
WIRE 528 -304 464 -304
WIRE 720 -304 720 -320
WIRE -32 -288 -32 -336
WIRE 208 -288 208 -416
WIRE 208 -288 160 -288
WIRE 160 -272 160 -288
WIRE 208 -272 208 -288
WIRE 304 -272 304 -304
WIRE 480 -256 480 -384
WIRE 896 -240 896 -272
WIRE 1088 -208 1088 -256
WIRE 720 -192 720 -240
WIRE 832 -192 720 -192
WIRE 160 -176 160 -208
WIRE 208 -176 208 -192
WIRE 208 -176 160 -176
WIRE 480 -176 480 -192
WIRE 208 -144 208 -176
WIRE 304 -144 304 -192
WIRE 720 -112 720 -192
WIRE 400 0 -64 0
WIRE 720 0 720 -32
WIRE 896 0 896 -144
WIRE -64 64 -64 0
WIRE -64 64 -144 64
WIRE 16 64 -64 64
WIRE 400 64 400 0
WIRE 400 64 352 64
WIRE 1040 112 960 112
WIRE 1152 112 1040 112
WIRE 1296 112 1152 112
WIRE 1392 112 1296 112
WIRE 1472 112 1392 112
WIRE 1568 112 1472 112
WIRE 1728 112 1568 112
WIRE 1296 128 1296 112
WIRE -64 144 -64 64
WIRE 16 144 -64 144
WIRE 544 144 352 144
WIRE 688 144 544 144
WIRE 960 144 960 112
WIRE 1392 144 1392 112
WIRE 544 176 544 144
WIRE 688 192 688 144
WIRE 1040 192 1040 112
WIRE 1152 192 1152 112
WIRE 1728 192 1728 112
WIRE 1472 208 1472 112
WIRE 1568 208 1568 112
WIRE -144 224 -144 64
WIRE -144 224 -288 224
WIRE 16 224 -144 224
WIRE 432 224 352 224
WIRE -288 240 -288 224
WIRE 432 240 432 224
WIRE 1296 240 1296 208
WIRE 1344 240 1296 240
WIRE 1392 240 1392 208
WIRE 1392 240 1344 240
WIRE 1392 256 1392 240
WIRE -144 272 -144 224
WIRE 544 288 544 256
WIRE 16 304 -16 304
WIRE 384 304 352 304
WIRE 1344 320 1344 240
WIRE 1344 320 1328 320
WIRE 1040 336 1040 256
WIRE 1040 336 960 336
WIRE 1152 336 1152 256
WIRE 1152 336 1040 336
WIRE 1216 336 1152 336
WIRE -16 352 -16 304
WIRE 432 352 432 304
WIRE 432 352 -16 352
WIRE 688 352 688 256
WIRE 688 352 432 352
WIRE 816 352 688 352
WIRE 1392 352 1392 336
WIRE 1392 352 1328 352
WIRE 1472 352 1472 272
WIRE 1472 352 1392 352
WIRE 1568 352 1568 272
WIRE 1568 352 1472 352
WIRE 1728 352 1728 272
WIRE 1728 352 1568 352
WIRE -288 384 -288 320
WIRE -144 384 -144 336
WIRE 384 400 384 304
WIRE 528 400 384 400
WIRE 528 416 528 400
WIRE 688 416 688 352
WIRE 688 416 608 416
WIRE 384 432 384 400
WIRE 688 448 688 416
WIRE 1152 480 1152 336
WIRE 1232 480 1152 480
WIRE 1392 480 1392 352
WIRE 1392 480 1296 480
WIRE 688 544 688 512
WIRE 384 560 384 512
FLAG 544 288 0
FLAG 384 560 0
FLAG -288 384 0
FLAG -144 384 0
FLAG 688 544 0
FLAG 208 -144 0
FLAG 304 -144 0
FLAG 816 352 -12
FLAG 720 0 -12
FLAG 896 0 -12
FLAG 384 -368 -12
FLAG -288 224 12
FLAG 384 -496 12
FLAG 720 -720 12
FLAG 480 -176 0
FLAG 432 -480 0
FLAG 960 144 0
FLAG 896 -720 12
FLAG -32 -288 0
FLAG 1088 -208 0
SYMBOL mc34063 256 160 R0
SYMATTR InstName U1
SYMBOL schottky 704 256 R180
WINDOW 0 24 64 Left 2
WINDOW 3 24 0 Left 2
SYMATTR InstName D1
SYMATTR Value 1N5818
SYMATTR Description Diode
SYMATTR Type diode
SYMBOL cap 416 240 R0
SYMATTR InstName C1
SYMATTR Value 470p
SYMBOL res 624 400 R90
WINDOW 0 0 56 VBottom 2
WINDOW 3 32 56 VTop 2
SYMATTR InstName R2
SYMATTR Value 1.5k
SYMBOL res 368 416 R0
SYMATTR InstName R3
SYMATTR Value 14k
SYMBOL voltage -288 224 R0
WINDOW 123 0 0 Left 0
WINDOW 39 0 0 Left 0
SYMATTR InstName V1
SYMATTR Value 12
SYMBOL ind 528 160 R0
SYMATTR InstName L1
SYMATTR Value 100µ
SYMBOL cap -160 272 R0
SYMATTR InstName C2
SYMATTR Value 220µ
SYMBOL cap 672 448 R0
SYMATTR InstName C3
SYMATTR Value 100µ
SYMBOL cap 128 -432 R90
WINDOW 0 0 32 VBottom 2
WINDOW 3 32 32 VTop 2
SYMATTR InstName C4
SYMATTR Value 1000µ
SYMBOL cap 144 -272 R0
SYMATTR InstName C5
SYMATTR Value 3.3p
SYMBOL res 192 -288 R0
SYMATTR InstName R4
SYMATTR Value 20k
SYMBOL res 288 -288 R0
SYMATTR InstName R5
SYMATTR Value 680
SYMBOL res 480 -320 R90
WINDOW 0 0 56 VBottom 2
WINDOW 3 32 56 VTop 2
SYMATTR InstName R6
SYMATTR Value 680
SYMBOL res 656 -448 R90
WINDOW 0 0 56 VBottom 2
WINDOW 3 32 56 VTop 2
SYMATTR InstName R7
SYMATTR Value 27
SYMBOL diode 704 -560 R0
SYMATTR InstName D2
SYMATTR Value 1N4148
SYMBOL diode 704 -304 R0
SYMATTR InstName D3
SYMATTR Value 1N4148
SYMBOL res 704 -704 R0
SYMATTR InstName R8
SYMATTR Value 1k
SYMBOL res 704 -128 R0
SYMATTR InstName R9
SYMATTR Value 1k
SYMBOL npn 832 -624 R0
SYMATTR InstName Q1
SYMBOL pnp 832 -144 M180
SYMATTR InstName Q2
SYMBOL res 880 -512 R0
SYMATTR InstName R10
SYMATTR Value 3.3
SYMBOL res 880 -368 R0
SYMATTR InstName R11
SYMATTR Value 3.3
SYMBOL voltage -32 -432 R0
WINDOW 123 0 0 Left 0
WINDOW 39 0 0 Left 0
SYMATTR InstName V2
SYMATTR Value SINE(0 2 1k)
SYMBOL res 704 -416 R0
SYMATTR InstName R12
SYMATTR Value 20
SYMBOL cap 416 -560 R0
SYMATTR InstName C6
SYMATTR Value 100n
SYMBOL cap 464 -256 R0
SYMATTR InstName C7
SYMATTR Value 100n
SYMBOL AutoGenerated\\LM337_N_TRANS 1264 336 R0
SYMATTR InstName U3
SYMBOL diode 1232 496 R270
WINDOW 0 32 32 VTop 2
WINDOW 3 0 32 VBottom 2
SYMATTR InstName D4
SYMBOL cap 1136 192 R0
SYMATTR InstName C8
SYMATTR Value 100n
SYMBOL cap 1024 192 R0
SYMATTR InstName C9
SYMATTR Value 22µ
SYMBOL cap 1456 208 R0
SYMATTR InstName C10
SYMATTR Value 100n
SYMBOL cap 1552 208 R0
SYMATTR InstName C11
SYMATTR Value 22µ
SYMBOL res 1376 240 R0
SYMATTR InstName R13
SYMATTR Value 100
SYMBOL cap 1376 144 R0
SYMATTR InstName C12
SYMATTR Value 22µ
SYMBOL res 1280 112 R0
SYMATTR InstName R14
SYMATTR Value 860
SYMBOL res 1712 176 R0
SYMATTR InstName R1
SYMATTR Value 50
SYMBOL OpAmps\\OP07 384 -496 R0
SYMATTR InstName U2
SYMBOL res 1072 -352 R0
SYMATTR InstName R15
SYMATTR Value 50
TEXT -472 536 Left 2 !.tran .500
TEXT -472 568 Left 2 !.inc mc34063.lib
TEXT -472 608 Left 2 !.inc LM337_N_TRANS.lib
